[General]
description = Simple sim where two nodes communicate wirelessly.
network = ResourceNetwork
sim-time-limit = 2000s
seed-set = 1

*.*.ipv4.arp.typename = "GlobalArp"

# Host A Configuration
*.mdAutonomousVehicle[*].numApps = 1
*.mdAutonomousVehicle[*].app[0].typename = "TrafficGenerator"	# UdpEchoApp will send back packets; was UdpBasicApp
*.mdAutonomousVehicle[*].app[0].destAddresses = "edgeServer" # "hostB"
*.mdAutonomousVehicle[*].app[0].destPort = 5000 # HTTP Request
*.mdAutonomousVehicle[*].app[0].messageLength = 1024B
*.mdAutonomousVehicle[*].app[0].sendInterval = exponential(12ms)
*.mdAutonomousVehicle[*].app[0].packetName = "TaskData"
*.mdAutonomousVehicle[*].app[0].minRequiredCPUCycles = 100
*.mdAutonomousVehicle[*].app[0].maxRequiredCPUCycles = 500
*.mdAutonomousVehicle[*].app[0].minDeadlineLatency = 0.5
*.mdAutonomousVehicle[*].app[0].maxDeadlineLatency = 20

# Edge Server Configuration
*.edgeServer*.numApps = 1
*.edgeServer*.app[0].typename = "ResourceAllocatorApp" # Acts as a sink app; Was "UdpSink"
*.edgeServer*.app[0].localPort = 5000

# WLAN Configuration
*.mdAutonomousVehicle[*].wlan[0].typename = "AckingWirelessInterface"
*.mdAutonomousVehicle[*].wlan[0].mac.useAck = false
*.mdAutonomousVehicle[*].wlan[0].mac.fullDuplex = false
#*.mdAutonomousVehicle[*].wlan[0].radio.transmitter.communicationRange = 500m
*.mdAutonomousVehicle[*].wlan[0].mac.headerLength = 23B

*.mdAutonomousVehicle[*].wlan[0].radio.typename = "ApskRadio"
*.mdAutonomousVehicle[*].wlan[0].radio.centerFrequency = 2GHz # Carrier Frequency
*.mdAutonomousVehicle[*].wlan[0].radio.bandwidth = 2MHz
*.mdAutonomousVehicle[*].wlan[0].radio.receiver.bandwidth = 2MHz
*.mdAutonomousVehicle[*].wlan[0].radio.transmitter.power = 1.4mW
*.mdAutonomousVehicle[*].wlan[0].radio.transmitter.preambleDuration = 10us
*.mdAutonomousVehicle[*].wlan[0].radio.transmitter.headerLength = 8B
*.mdAutonomousVehicle[*].wlan[0].radio.receiver.sensitivity = -85dBm
*.mdAutonomousVehicle[*].wlan[0].radio.receiver.energyDetection = -85dBm
*.mdAutonomousVehicle[*].wlan[0].radio.receiver.snirThreshold = 4dB

# Base Station Configuration
*.baseStation.forwarding = true
*.baseStation*.wlan[0].typename = "AckingWirelessInterface"
*.baseStation*.wlan[0].mac.useAck = false
*.baseStation*.wlan[0].mac.fullDuplex = false
#*.baseStation*.wlan[0].radio.transmitter.communicationRange = 500m
*.baseStation*.wlan[0].mac.headerLength = 23B

*.baseStation*.wlan[0].radio.typename = "ApskRadio"
*.baseStation*.wlan[0].radio.centerFrequency = 2GHz
*.baseStation*.wlan[0].radio.transmitter.power = 1.4mW
*.baseStation*.wlan[0].radio.transmitter.preambleDuration = 10us
*.baseStation*.wlan[0].radio.transmitter.headerLength = 8B
*.baseStation*.wlan[0].radio.receiver.sensitivity = -85dBm
*.baseStation*.wlan[0].radio.receiver.energyDetection = -85dBm
*.baseStation*.wlan[0].radio.receiver.snirThreshold = 4dB

**.wlan[0].radio.bandwidth = 2MHz
**.wlan[0].radio.receiver.bandwidth = 2MHz

#*.host*.**.bitrate = 1Mbps
*.baseStation*.wlan[0].bitrate = 1Mbps # Could be what I alter to achieve 6G?
#*.mdMobilePhone.wlan[0].bitrate = 1Mbps
*.mdAutonomousVehicle*.wlan[0].bitrate = 1Mbps

# Radio Configuration
*.radioMedium.backgroundNoise.power = -90dBm
*.radioMedium.backgroundNoise.centerFrequency = 2GHz
*.radioMedium.backgroundNoise.bandwidth = 2MHz

# Limit the medium's calculation range to save CPU and prevent errors
*.radioMedium.mediumLimitCache.centerFrequency = 2GHz
*.radioMedium.mediumLimitCache.bandwidth = 2MHz
*.radioMedium.mediumLimitCache.minRelativePower = -110dB # Signals below this are ignored
*.radioMedium.**ignorePartialInterference = true

#*.radioMedium.bandwidth = 10GHz
# Use MAC address filter to avoid sending to irrelevant devices on the network; from https://inet.omnetpp.org/docs/users-guide/ch-transmission-medium.html#overview
*.radioMedium.macAddressFilter = true

# Visualiser Configuration
**.radio.displayCommunicationRange = true
*.visualizer.mediumVisualizer.displaySignals = true
*.visualizer.physicalLinkVisualizer.displayLinks = true
*.visualizer.physicalLinkVisualizer.packetFilter = "TaskData"
*.visualizer.mobilityVisualizer.displayVelocities = true
*.visualizer.mobilityVisualizer.displayMovementTrails = true

# Add Mobility to Host
*.hostA.mobility.typename = "LinearMobility"
*.hostA.mobility.speed = 12mps
*.hostA.mobility.initialMovementHeading = 200deg

# TODO Change Bandwidth to 1Tbps/1THz; I think this will require using RadioMedium instead of UnitDiskRadioMedium

